*SPEF "ieee 1481-1999"
*DESIGN "tristate_test"
*DATE "18:27:21 Thursday October 24, 2024"
*VENDOR "The OpenROAD Project"
*PROGRAM "OpenROAD"
*VERSION "b16bda7e82721d10566ff7e2b68f1ff0be9f9e38"
*DESIGN_FLOW "NAME_SCOPE LOCAL" "PIN_CAP NONE"
*DIVIDER /
*DELIMITER :
*BUS_DELIMITER []
*T_UNIT 1 NS
*C_UNIT 1 PF
*R_UNIT 1 OHM
*L_UNIT 1 HENRY

*NAME_MAP
*3 en
*4 in
*5 out
*6 _0_
*7 net1
*8 net2
*9 FILLER_0_0_15
*10 FILLER_0_0_27
*11 FILLER_0_0_29
*12 FILLER_0_0_3
*13 FILLER_0_0_41
*14 FILLER_0_0_53
*15 FILLER_0_0_57
*16 FILLER_0_0_69
*17 FILLER_0_0_81
*18 FILLER_0_10_15
*19 FILLER_0_10_27
*20 FILLER_0_10_29
*21 FILLER_0_10_3
*22 FILLER_0_10_41
*23 FILLER_0_10_53
*24 FILLER_0_10_65
*25 FILLER_0_10_77
*26 FILLER_0_11_15
*27 FILLER_0_11_27
*28 FILLER_0_11_3
*29 FILLER_0_11_39
*30 FILLER_0_11_51
*31 FILLER_0_11_55
*32 FILLER_0_11_57
*33 FILLER_0_11_69
*34 FILLER_0_11_81
*35 FILLER_0_12_15
*36 FILLER_0_12_27
*37 FILLER_0_12_29
*38 FILLER_0_12_3
*39 FILLER_0_12_41
*40 FILLER_0_12_53
*41 FILLER_0_12_57
*42 FILLER_0_12_69
*43 FILLER_0_12_81
*44 FILLER_0_1_15
*45 FILLER_0_1_27
*46 FILLER_0_1_3
*47 FILLER_0_1_39
*48 FILLER_0_1_51
*49 FILLER_0_1_55
*50 FILLER_0_1_57
*51 FILLER_0_1_69
*52 FILLER_0_1_81
*53 FILLER_0_2_15
*54 FILLER_0_2_27
*55 FILLER_0_2_29
*56 FILLER_0_2_3
*57 FILLER_0_2_41
*58 FILLER_0_2_53
*59 FILLER_0_2_65
*60 FILLER_0_2_77
*61 FILLER_0_3_15
*62 FILLER_0_3_27
*63 FILLER_0_3_3
*64 FILLER_0_3_39
*65 FILLER_0_3_51
*66 FILLER_0_3_55
*67 FILLER_0_3_57
*68 FILLER_0_3_69
*69 FILLER_0_3_81
*70 FILLER_0_4_15
*71 FILLER_0_4_27
*72 FILLER_0_4_29
*73 FILLER_0_4_3
*74 FILLER_0_4_41
*75 FILLER_0_4_53
*76 FILLER_0_4_65
*77 FILLER_0_4_77
*78 FILLER_0_5_11
*79 FILLER_0_5_17
*80 FILLER_0_5_29
*81 FILLER_0_5_3
*82 FILLER_0_5_41
*83 FILLER_0_5_53
*84 FILLER_0_5_57
*85 FILLER_0_5_69
*86 FILLER_0_5_81
*87 FILLER_0_6_29
*88 FILLER_0_6_41
*89 FILLER_0_6_53
*90 FILLER_0_6_6
*91 FILLER_0_6_65
*92 FILLER_0_6_77
*93 FILLER_0_7_18
*94 FILLER_0_7_30
*95 FILLER_0_7_42
*96 FILLER_0_7_54
*97 FILLER_0_7_57
*98 FILLER_0_7_6
*99 FILLER_0_7_69
*100 FILLER_0_7_81
*101 FILLER_0_8_15
*102 FILLER_0_8_27
*103 FILLER_0_8_29
*104 FILLER_0_8_3
*105 FILLER_0_8_41
*106 FILLER_0_8_53
*107 FILLER_0_8_65
*108 FILLER_0_8_77
*109 FILLER_0_9_15
*110 FILLER_0_9_27
*111 FILLER_0_9_3
*112 FILLER_0_9_39
*113 FILLER_0_9_51
*114 FILLER_0_9_55
*115 FILLER_0_9_57
*116 FILLER_0_9_69
*117 FILLER_0_9_81
*118 PHY_EDGE_ROW_0_Left_13
*119 PHY_EDGE_ROW_0_Right_0
*120 PHY_EDGE_ROW_10_Left_23
*121 PHY_EDGE_ROW_10_Right_10
*122 PHY_EDGE_ROW_11_Left_24
*123 PHY_EDGE_ROW_11_Right_11
*124 PHY_EDGE_ROW_12_Left_25
*125 PHY_EDGE_ROW_12_Right_12
*126 PHY_EDGE_ROW_1_Left_14
*127 PHY_EDGE_ROW_1_Right_1
*128 PHY_EDGE_ROW_2_Left_15
*129 PHY_EDGE_ROW_2_Right_2
*130 PHY_EDGE_ROW_3_Left_16
*131 PHY_EDGE_ROW_3_Right_3
*132 PHY_EDGE_ROW_4_Left_17
*133 PHY_EDGE_ROW_4_Right_4
*134 PHY_EDGE_ROW_5_Left_18
*135 PHY_EDGE_ROW_5_Right_5
*136 PHY_EDGE_ROW_6_Left_19
*137 PHY_EDGE_ROW_6_Right_6
*138 PHY_EDGE_ROW_7_Left_20
*139 PHY_EDGE_ROW_7_Right_7
*140 PHY_EDGE_ROW_8_Left_21
*141 PHY_EDGE_ROW_8_Right_8
*142 PHY_EDGE_ROW_9_Left_22
*143 PHY_EDGE_ROW_9_Right_9
*144 TAP_TAPCELL_ROW_0_26
*145 TAP_TAPCELL_ROW_0_27
*146 TAP_TAPCELL_ROW_10_37
*147 TAP_TAPCELL_ROW_11_38
*148 TAP_TAPCELL_ROW_12_39
*149 TAP_TAPCELL_ROW_12_40
*150 TAP_TAPCELL_ROW_1_28
*151 TAP_TAPCELL_ROW_2_29
*152 TAP_TAPCELL_ROW_3_30
*153 TAP_TAPCELL_ROW_4_31
*154 TAP_TAPCELL_ROW_5_32
*155 TAP_TAPCELL_ROW_6_33
*156 TAP_TAPCELL_ROW_7_34
*157 TAP_TAPCELL_ROW_8_35
*158 TAP_TAPCELL_ROW_9_36
*159 _1_
*160 _2_
*161 input1
*162 input2

*PORTS
en I
in I
out O

*D_NET *3 0.00304092
*CONN
*P en I
*I *161:A I *D sky130_fd_sc_hd__clkbuf_1
*CAP
1 en 0.00119825
2 *161:A 0.00119825
3 *161:A *162:A 0.000644425
*RES
1 en *161:A 14.5026 
*END

*D_NET *4 0.00301353
*CONN
*P in I
*I *162:A I *D sky130_fd_sc_hd__clkbuf_1
*CAP
1 in 0.00118455
2 *162:A 0.00118455
3 *162:A *160:A 0
4 *161:A *162:A 0.000644425
*RES
1 in *162:A 9.26817 
*END

*D_NET *5 0.00550389
*CONN
*P out O
*I *160:Z O *D sky130_fd_sc_hd__ebufn_8
*CAP
1 out 0.00275195
2 *160:Z 0.00275195
*RES
1 *160:Z out 32.9676 
*END

*D_NET *6 0.000584619
*CONN
*I *160:TE_B I *D sky130_fd_sc_hd__ebufn_8
*I *159:Y O *D sky130_fd_sc_hd__inv_2
*CAP
1 *160:TE_B 0.000157222
2 *159:Y 0.000157222
3 *160:TE_B *159:A 0.000270176
*RES
1 *159:Y *160:TE_B 10.5 
*END

*D_NET *7 0.000922344
*CONN
*I *159:A I *D sky130_fd_sc_hd__inv_2
*I *161:X O *D sky130_fd_sc_hd__clkbuf_1
*CAP
1 *159:A 0.000326084
2 *161:X 0.000326084
3 *160:TE_B *159:A 0.000270176
*RES
1 *161:X *159:A 11.79 
*END

*D_NET *8 0.000328511
*CONN
*I *160:A I *D sky130_fd_sc_hd__ebufn_8
*I *162:X O *D sky130_fd_sc_hd__clkbuf_1
*CAP
1 *160:A 0.000164256
2 *162:X 0.000164256
3 *162:A *160:A 0
*RES
1 *162:X *160:A 9.375 
*END
